Users who are not familiar with Linux based distributions can use an intuitive GUI to operate the program. Patients who are treated with CYT387 have low rates of anemia and may attain transfusion independence. There is an intermediate domain (ID) that features a RHIM, which is involved in interaction with RIPK3 or other RHIM-containing proteins. Licensing by means of a royalty is something we consider in this section. The genes shown to be modified by SUMO were co-expressed. 
Luscher et al. were published in 1964. Low sensitivity and limited throughput are some of the problems that these detection techniques encounter. Positive signals were attributed to the inserted sequence and no significant reporter gene expression was observed with the empty pBiP0 transfected cells. A variety of novel applications have been inspired by these nanostructures, including field-effect transistors, nano-mechanical switches and mixers, mechanical amplifiers, opto-mechanical modulators, bio-sensors, and the observation of macroscopic quantum effects. There is a study design in Figure 1. 
Recent examples include a study by Theisen et al. The ICD placement was associated with a lower risk of all-cause mortality at the weighted mean follow-up duration of 4.2 years. The city of Bridgetown's main station had the highest percentage of calls from the Sick person/known diagnosis followed by Breathing problems, traffic accidents, and Cancelled calls. PPi was always considered as an additional fixed residue in docking calculations. A fence was built around three of the plots to exclude the herbivores. The World Health Organization has guidelines for iron supplementation. All adverse drug reactions were mild in severity in healthy subjects. 
There have been no cases of brain abscess associated with mycotic aneurysm of the internal carotid arteries in a survey of previously reported cases of brain abscesses. Meetinghoctramine rescue of axon outgrowth may be the result of restored Ca2+ channel function, as we find m2Rs are overexpressed in SMA MNs. The preserved SOD activity was consistent with reduced NADPH oxidase expression, as demonstrated by the suppression ofMDA content and preserved SOD activity. There are differences in the appearance and composition of petunia and tobacco. The majority of these local structures consist of -helix and other extended formations. At 1 year to 25 and 21 years, the subject counts for glomerular filtration rate estimation declined in the rATG and basiliximab arms. The whole cell image was designated as the region of interest during the analysis when the co-localization was measured. High MELD scores show the severity of the disease before the transplant and are associated with morbidity. The host can produce toxins from C. perfringens, C. difficile, and C. tetani. 
Albopictus is pervasive. Her score was 30 points. Once the genetic information for the metabolic pathways that produce important commodity biochemicals is solved, these genetic parts are transferred to other organisms that are capable of utilizing diverse bioresources for growth. The specificity values ranged from 46 to 100 %, with a median value of 92 %. A total of 1,248 eyes of 622 patients were diagnosed with allergic conjunctivitis within the study period. Due to the unstable condition and severe burns on the patient's right hemiabdomen, the first ultrasound was limited in time, quality, and subjectivity. Vinblastine is a part of the vinca alkaloids which include vinorelbine, vincristine, vinblastine, and vindesine. The strong conditions narrow the scope of interpretation51. The cell volume of S. marinoi was taken from Kamp et al. 
For high supersaturation environments, the size-resolved chemical composition method is needed for CCN predictions. It is possible that the binding of trans-factors like PRDM9 or CXXC1, at a fine scale, is directly affected by the role that DNA methylation plays in the formation of NDRs at a large scale. In ophthalmology, the role of the WWOX gene and the WWOX protein remained unknown. Our findings show that there is a link between co-evolution and physical contact, and that groups of co-evolving amino acids tend to be spatially close. The studies listed in Table 5 corroborate the findings. The Sagittal and L–O sections of E13. The state of each random variable depends on the state of its horizontal, vertical, and temporal neighbors. Most side effects of PDE-5 inhibitor are mild to moderate and related to vasodilation. 
A mass ratio of 0.46:1.0 was used to make the glass-ceramic composite HA/glass materials. The finding that the oncogenic effects of the proto-oncogene c-Myc are deregulating the expression of its target genes is in agreement with these observations. There are two different forms ofGraft-versus-Host disease that can develop. In other words, the A46G and the C79G variant within the coding region were thought to affect the ADRB2 gene expression. The local search nature of INFO-RNA is the first. 
In our patient, no anorectal inflammatory manometry was done. Electrocardiograms, vital sign assessments and physical exams were performed throughout the study period. From 0.05 to 0.2 M, all the divalent ion Ca2+ had a greater inhibition than monovalent ion Na+. The dot counting is still difficult for a physician because the nuclei can be poorly grouped. The EC50 concentrations were calculated using GraphPad Prism. 
A wide range of biological systems can be modeled with the help of a particular programming framework known as the stochastic pi-calculus. Acute renal insufficiency has been reported. A study showed that the Golgi apparatus was present in smooth muscle cells and adipocytes of mice. The detection of all three species by real-time PCR was found to be very low. The cloak was made with three 17 m-thick copper strips on a 100 m-thick Kapton (GT 7600) substrate. We found that relative mortality was higher in the Netherlands because of the lower mortality in Dutch insured HIV-negative lives. The investigations were normal in range. The monophyletic relationships of trematodes were shown in the UPGMA trees. 
This interpretation has guided screening programs for 1- and 2-year-olds, as well as clinical trials that have treated 2-year-olds, and the interpretation of the cross-sectional literature. S. Remington and R. Puertollano gave generous gifts to MCOLN1 and Cytosolic ro-GFP. The WT can detect genes that are below the noise level because their combined energy condenses into a greater wavelet coefficients. The use of molecular biology methods for the analysis of microbial communities in environmental samples requires efficient and reproducible strategies of DNA extraction. BLAST was used to perform homicide searches on the NCBI website. 
In addition to cell cycle and cell phase transition, these results show that CXCL13 is involved in cancer cell growth, proliferation, EMT, migration and invasion. Figure 3 shows the pathological sections of three different types of cartilage. A number of psychological assessments will be conducted in phase A, immediately pre-intervention and 2 h and 24 h after N2O or placebo administration, as outlined in figure. A negative control was used to test the Amplicon A for each gene. The 16S rRNA genes were aligned against those in the most recent version of the SILVA database using the ARB software package. Johnson et al. The MAX IV project will equip each ring with two diagnostic beamlines based on the image of the electron beam. During the immunizations, the animals were snoozed with a drug called ketamine 10–15mg/kg given by Intervet, Sweden. 