The occipital nerve is not known to have an effect on CM. The relationship between buyers and sellers is still present, but not as much as the past, according to an Informant. A general lack of effectiveness was the most common reason for differences of opinion across the six countries. The analyses needed an examination of bottom-up effects to predict level-2 outcomes. It has been suggested that ROS production is involved in the regulation of Mcp1 expression. 
The driver was the key source of interest in all cases. It is now widely accepted that elevated levels of cellular oxidative stress and dependence on anti-apoptotic ROS-signaling in cancer cells are involved in the carcinogenesis. The mouse mammary epithelial cells were generated as previously described. LST-NG, tumors with type V-I pit pattern, tumors with a depressed area, and tumors with a shallow submucosa-invasive cancer cases were all favored by the survey. The two products were recovered in relatively low yields. Lung cancer is the most common cancer, and bladder cancer is the highest G-CSF producer. 
The findings suggest that the beginning and progression of AA are related to certain genes. To the best of our knowledge, this is the first reported attempt at a rationally designed copolymer for H2 evolution that mimics the function of the matrix surrounding the active site. As shown in figure, the axes of the 10 beams were visually inspected to pass through the isocenter and the POIs in the array. 
The nuclease activity of the PIN-like domains requires at least four acidic residues. In Tarangire National Park, the cover of large trees declined from 20% in 1970 to 5% in 1996. Positive selection isolated monocytes using the MACS column. There are a number of functionally important splice variants that cannot be distinguished by the 3' SAGE tag. Huntington's disease is a disorder of the nervous system characterized by progressive motor, cognitive and psychiatric disorders. 
Protopore gating in ClC-1 is fast with constants at room temperature. Full-length Htt species were observed upon IKK- overexpression figure B, which may reflect full-length Htt post-translational modification by SUMO or ubiquitin. This means that the gating is sufficiently fast for the channel to be activated during the time of the muscle action potential. One explanation is that G allele has higher transcript efficiency than A allele. The ART is more robust to noise and thus has suppressed the streaking artifacts. In the evolutionary coins that have been flipped to date, we observe at least 10 times, and conclude that its evolution is likely because there are organisms with larger than the wavelength of light on a planet with visible light at the surface. Individual mitochondria had a filiform shape with lengths ranging from 1 to 10 m, but often formed tortuous networks. A scatterplot of the first two components of the multivariate analysis resulted in a most likely k value of 10. Conversely, at 96 h p.c. 
A large number of docking programs have been developed over the years. The average background was ignored for all the spots with raw intensity less than 100U. The effects of genome duplication and hybridization on nonadditive expression in S. x neyrautii and S. x townsendii. When changes in the time of food availability combine with a reduction in calories, the rhythms of the brain and body are usually not affected. The genes that are linked to the forms ofPD are DJ-1, -synuclein, and PINK1. It was observed that the consumption of PFE influences the peroxidation of cholesterol. We looked at the cellular distribution of the CAPS2 isoforms in the brains of P7 and P21 mouse brains. 
These sessions were guided by a CARe coach. He used the example of complex post-epileptic behavior. 67, 68, 69 are energydense foods and sugar beverages. The extent of congestion figureb and 6c, along with a few cases showing sinusoidal obstruction syndrome were also present. In a study of over 10,000 patients in the UK, the prevalence of diabetes was reported to be 16.5%. We used the plug-in method to determine the smoothing factor in the Geospatial Modelling Environment. It has been proven that analgesia can vary in animal species. The Met 423-Tyr 423 main chain is one of the side chains that form the wall of S1' cavity. It greatly increases the package size and cost. 
At the time of recording, all males were sexually mature. Many people don't know their family history beyond first degree relatives, and causes of death are less likely to be known, so it's difficult to define what is meant by sporadicALS. Surprisingly, even when administered recurrently over long periods of time, very few reports of severe life threatening infections have been reported. To maximize the number of unique DSB events identified, it is important to implement an error-correction scheme. The regulation of the EPCs is done by many signaling pathways. Our examples use the category. A tooth transplant may be considered a temporary measure. 
miRNAs biogenesis is under strict control and has links to many diseases. The children whose mothers were non-supportive were more likely to recant their initial disclosure of abuse than the children whose mothers were supportive. The N15 Cro that shows 25% and 9% identity to the Cro proteins of P22 and lambda has been subjected to X-ray diffraction. The EBs appeared irregular in the 1 mM NaF-treated culture, with a significant decrease in circularity, after 5 days of hESC differentiation. The mechanisms underlying the aggregation of A have been the subject of intense investigation. In our study, educational attainment was not associated with ART adherence, unlike previous studies that found low educational attainment to be a predictor for non-adherence. Early indicators of the development of CVD may be found in a number of mechanisms. The only representatives of Myzostomidae and monophyly of Myzostomidae is well established by independent priori evidence. XIAP- deficient myotubes were sensitive to cytochrome c and underwent apoptosis in two hours. 
The proportion of arginase 1 positive microglia/macrophages rose following the administration of IL-1Ra. In resource-poor settings, where high acceptability of hair collection has been demonstrated, these features may make this monitoring tool particularly promising. Prevention and treatment of CKD can be accomplished with a good intake of food. Figure 7 shows the effects of the acute DNA damage response on the mitochondria. The best in-water total free energy difference was 0.7 kJ/mol, corresponding to enol/keto ratio of 0.75. The cells were treated with 1000 nM Cucurbitacin E for 0, 12, 24, or 48 h and then had their percentage of sub-G1 phaseanalyzed. Local and previous interactions with the vendor. Some studies suggest that land use type affects species diversity. 